Circuit: * C:\Users\mattr\Dokumenty\mateuszrjzr_stm\matiHome\simulation\single_rail_amp_trans_non.asc

WARNING: Specified period is not longer than the sum of Trise, Tfall, and Ton for v2.  Increasing period to 1.002
WARNING: Specified period is not longer than the sum of Trise, Tfall, and Ton for v1.  Increasing period to 1.002
Direct Newton iteration for .op point succeeded.

Date: Wed Dec 08 21:48:56 2021
Total elapsed time: 2.577 seconds.

tnom = 27
temp = 27
method = modified trap
totiter = 341722
traniter = 341714
tranpoints = 167569
accept = 116929
rejected = 50640
matrix size = 29
fillins = 16
solver = Normal
Thread vector: 6.1/3.2[3] 1.3/1.0[3] 0.9/0.7[3] 0.1/0.4[1]  2592/500
Matrix Compiler1: 2.11 KB object code size  0.4/0.2/[0.1]
Matrix Compiler2: 2.79 KB object code size  0.2/0.3/[0.2]

