Circuit: * C:\Users\mattr\Dokumenty\mateuszrjzr_stm\matiHome\simulation\single_rail_amp_trans.asc

WARNING: Specified period is not longer than the sum of Trise, Tfall, and Ton for v2.  Increasing period to 1.002
WARNING: Specified period is not longer than the sum of Trise, Tfall, and Ton for v1.  Increasing period to 1.002
Direct Newton iteration for .op point succeeded.

Date: Wed Dec 08 20:12:53 2021
Total elapsed time: 0.634 seconds.

tnom = 27
temp = 27
method = modified trap
totiter = 91046
traniter = 91038
tranpoints = 45042
accept = 30046
rejected = 14996
matrix size = 27
fillins = 16
solver = Normal
Thread vector: 10.3/3.2[3] 1.6/0.9[3] 1.2/0.5[3] 0.1/0.4[1]  2592/500
Matrix Compiler1: 2.09 KB object code size  0.4/0.2/[0.1]
Matrix Compiler2: 2.68 KB object code size  0.2/0.3/[0.2]

