Circuit: * C:\Users\mattr\Dokumenty\mateuszrjzr_stm\matiHome\simulation\single_rail_amp.asc

Fatal Error: R7: Resistance must not be zero.
